/*--------------------------------*- C++ -*----------------------------------*\
| =========                 |                                                 |
| \\      /  F ield         | OpenFOAM: The Open Source CFD Toolbox           |
|  \\    /   O peration     | Version:  v2012                                 |
|   \\  /    A nd           | Website:  www.openfoam.com                      |
|    \\/     M anipulation  |                                                 |
\*---------------------------------------------------------------------------*/
FoamFile
{
    version     2.0;
    format      ascii;
    class       dictionary;
    object      createPatchDict;
}
// * * * * * * * * * * * * * * * * * * * * * * * * * * * * * * * * * * * * * //

pointSync   false;

// Patches to create.
patches
(
    {
        name inlet;
        
        patchInfo
        {
            type patch;
            inGroups (inlet);
        }

        constructFrom patches;
        patches (inlet);
    }

    {
        name outlet;
        
        
        patchInfo
        {
            type patch;
            inGroups (ouetlet);
        }

        constructFrom patches;   
        patches (outlet);
    }

    {
        name symetryPlane;
        
        patchInfo
        {
            type symetryPlane;
            inGroups (symetryPlane);
        }

        constructFrom patches;
        patches (symetryPlane);
    }

    {
        name wall;

        patchInfo
        {
            type wall;
            inGroups (wall);
        }

        constructFrom patches;
        patches (wall);
    }
);

// ************************************************************************* //
